LAMMPS (23 Jun 2022 - Update 4)
# 3D LAMMPS simulation for binary mixtures of ultrasoft repulsive particles
# Initialization
units lj
dimension 3
atom_style atomic
pair_style gem 2.5
boundary p p p

variable n1 equal 4950
variable n2 equal 550

# System definition
region box block 0 10 0 10 0 10
create_box 2 box
Created orthogonal box = (0 0 0) to (10 10 10)
create_atoms 1 random 4950 123456 box
Created 4950 atoms
create_atoms 2 random 550 234567 box
Created 550 atoms

# Simulation settings
mass 1 1
mass 2 1
pair_coeff 1 1 1.0 1.0 2
pair_coeff 2 2 1.0 1.0 4
pair_coeff 1 2 1.0 1.07 3

# Energy minimization
thermo 10
minimize 1.0e-4 1.0e-6 1000 10000
Generated 0 of 1 mixed pair_coeff terms from geometric mixing rule
  update every 1 steps, delay 0 steps, check yes
Step          Temp          E_pair         E_mol          TotEng         Press
0   0              14.908801      0              14.908801      80.727554
Loop time of 0.984874 on 4 procs for 43 steps with 5500 atoms

Minimization stats:
  Stopping criterion = energy tolerance
  Energy initial, next-to-last, final =
  Force two-norm initial, final = 406.28281 18.929141
  Force max component initial, final = 14.863989 1.9746957
  Final line search alpha, max atom move = 0.036720113 0.072511049
  Iterations, force evaluations = 43 46

# Equilibration
fix nve all nve
fix langevin all langevin 1.0 1.0 0.1 345678
timestep 0.005
run 5000
Generated 0 of 1 mixed pair_coeff terms from geometric mixing rule
Step          Temp          E_pair         E_mol          TotEng         Press
43   0              14.176233      0              14.176233      80.165303
Averages over the last 251 of 502 rows, steps 2550 to 5043:
Temp E_pair E_mol TotEng Press
0.999016 14.5271 0 16.0254 85.8492
Loop time of 114.973 on 4 procs for 5000 steps with 5500 atoms

# Visualization
unfix nve
unfix langevin
thermo 50
variable kinetic_energy equal ke
variable potential_energy equal pe
variable pressure equal press
fix ave_time all ave/time 10 1 10 v_kinetic_energy v_potential_energy file energy2.dat
dump dump all atom 50 output2.lammpstrj

# Run
fix nve all nve
fix langevin all langevin 1.0 1.0 0.1 345678
timestep 0.0005
compute myRDF all rdf 100 1 1 cutoff 2.0
fix myfix all ave/time 100 1 10000 c_myRDF[1] c_myRDF[2] c_myRDF[3] file oneone_two.txt mode vector
#first column is center bin, 2nd is g(r), 3rd is r
run 10000
Generated 0 of 1 mixed pair_coeff terms from geometric mixing rule
  update every 1 steps, delay 10 steps, check yes
Step          Temp          E_pair         E_mol          TotEng         Press
5043   0.9951657      14.523644      0              16.016121      85.842319
Averages over the last 101 of 202 rows, steps 10050 to 15043:
Temp E_pair E_mol TotEng Press
0.998971 14.5277 0 16.0259 85.8535
Loop time of 225.941 on 4 procs for 10000 steps with 5500 atoms
